IDF file: /home/ashmansk/QSH-040-D-DP-EMX.emn
Version: 2.0
Input file: qsh-040-d-dp.dra
Output file: qsh-040-d-dp.dra
idf_in complete.
