IDF file: /home/ashmansk/QSH-040-D-DP-EMX.emn
Version: 2.0
Input file: /home/ashmansk/proj/spews/cadlib/footprints/QSH-060-01-X-D-A.dra
Output file: /home/ashmansk/proj/spews/cadlib/footprints/QSH-060-01-X-D-A.dra
idf_in complete.
